I"æ/Users/brianemory/Development/Learn.co/Fullstack%20Web%20Developer/Refresh/rails-dynamic-request-readme-v-000/app/assets/stylesheets/application.css?type=text/css&id=57aa10e7ed624f6af1569da5b04050e4633d497f778ad4651b9645f842a7c5d9:ET