I"/Users/brianemory/Development/Learn.co/Fullstack%20Web%20Developer/Refresh/rails-dynamic-request-readme-v-000/app/assets/javascripts/application.js?type=application/javascript&pipeline=self&id=62d042536ebc2a675b5923a68da86c4eac0434d1ebc338c1f3831eb2fc53fe57:ET