I"ô/Users/brianemory/Development/Learn.co/Fullstack%20Web%20Developer/Refresh/rails-dynamic-request-readme-v-000/app/assets/stylesheets/application.css?type=text/css&pipeline=self&id=d9f7ee797cc26f1c3a49b69bc77d54ad23bb2be8859cc6c1cae7b4b32249053b:ET