I"ó/Users/brianemory/Development/Learn.co/Fullstack%20Web%20Developer/Refresh/rails-dynamic-request-readme-v-000/app/assets/javascripts/application.js?type=application/javascript&id=59b3895c55ade5fcdc5849e9f08e459e269fb4bb2bc8405e428577e3d8331a94:ET