[o:Set:
@hash}I"environment-version:ETTI"environment-paths;TTI"0processors:type=text/css&file_type=text/css;TTI"¢file-digest:///Users/brianemory/Development/Learn.co/Fullstack%20Web%20Developer/Refresh/rails-dynamic-request-readme-v-000/app/assets/stylesheets/application.css;TTI">processors:type=text/css&file_type=text/css&pipeline=self;TTI"’file-digest:///Users/brianemory/Development/Learn.co/Fullstack%20Web%20Developer/Refresh/rails-dynamic-request-readme-v-000/app/assets/stylesheets;TTF